# generated using pymatgen
data_CuH4C14N3O4
_symmetry_space_group_name_H-M   'P 1'
_cell_length_a   12.99646021
_cell_length_b   14.51973061
_cell_length_c   19.18893051
_cell_angle_alpha   83.41681375
_cell_angle_beta   89.98873952
_cell_angle_gamma   89.99431979
_symmetry_Int_Tables_number   1
_chemical_formula_structural   CuH4C14N3O4
_chemical_formula_sum   'Cu2 H8 C28 N6 O8'
_cell_volume   3597.17343106
_cell_formula_units_Z   2
loop_
 _symmetry_equiv_pos_site_id
 _symmetry_equiv_pos_as_xyz
  1  'x, y, z'
loop_
 _atom_site_type_symbol
 _atom_site_label
 _atom_site_symmetry_multiplicity
 _atom_site_fract_x
 _atom_site_fract_y
 _atom_site_fract_z
 _atom_site_occupancy
  C  C0  1  0.49999433  0.42038298  0.60185100  1
  C  C1  1  0.49999400  0.31801200  0.60033900  1
  C  C2  1  0.50000233  0.59625700  0.46933299  1
  C  C3  1  0.50000533  0.59475100  0.39182299  1
  C  C4  1  0.49999300  0.23487598  0.59911200  1
  C  C5  1  0.49999267  0.13057601  0.59757700  1
  C  C6  1  0.49999300  0.04744500  0.59636000  1
  C  C7  1  0.49999233  0.94313899  0.59482600  1
  C  C8  1  0.50000733  0.67808300  0.34720099  1
  C  C9  1  0.50000200  0.67666800  0.27437198  1
  C  C10  1  0.50000133  0.59191500  0.24616897  1
  C  C11  1  0.49999733  0.50857100  0.29080099  1
  C  C12  1  0.49999933  0.50998900  0.36362797  1
  C  C13  1  0.49999433  0.58763800  0.02674502  1
  C  C14  1  0.49999900  0.59036800  0.16720098  1
  C  C15  1  0.49999000  0.66944200  0.90315199  1
  C  C16  1  0.49998233  0.66802301  0.83032200  1
  C  C17  1  0.49998133  0.49997467  0.84675300  1
  C  C18  1  0.49998533  0.50134500  0.91958100  1
  C  C19  1  0.49999133  0.58610600  0.94777599  1
  C  C20  1  0.49999467  0.75763699  0.59209700  1
  C  C21  1  0.49999233  0.86000699  0.59360800  1
  C  C22  1  0.49998633  0.58176200  0.72461399  1
  C  C23  1  0.49998100  0.58326900  0.80212399  1
  C  C24  1  0.16333801  0.58901700  0.59697800  1
  C  C25  1  0.04653299  0.58900800  0.59697700  1
  C  C26  1  0.95343500  0.58900700  0.59697200  1
  C  C27  1  0.83662200  0.58899700  0.59696900  1
  Cu  Cu28  1  0.60117700  0.58900100  0.59697000  1
  Cu  Cu29  1  0.39879203  0.58901800  0.59697700  1
  H  H30  1  0.50001100  0.74710301  0.37015200  1
  H  H31  1  0.49999800  0.44212699  0.39996099  1
  H  H32  1  0.49999300  0.73845901  0.92611000  1
  H  H33  1  0.50000200  0.74453001  0.23803300  1
  H  H34  1  0.49998567  0.43348598  0.95591399  1
  H  H35  1  0.49999633  0.43956500  0.26783299  1
  H  H36  1  0.49998200  0.73588499  0.79399100  1
  H  H37  1  0.49997900  0.43091601  0.82379100  1
  N  N38  1  0.55824300  0.52712600  0.13792700  1
  N  N39  1  0.55824000  0.52578500  0.06874400  1
  N  N40  1  0.44174302  0.65089700  0.05654103  1
  N  N41  1  0.44175202  0.65224101  0.12573099  1
  N  N42  1  0.74352400  0.58899600  0.59696500  1
  N  N43  1  0.25644398  0.58903100  0.59697700  1
  O  O44  1  0.41441900  0.72328800  0.59159500  1
  O  O45  1  0.41441602  0.45474702  0.60235800  1
  O  O46  1  0.41443801  0.59676700  0.49534899  1
  O  O47  1  0.41439700  0.58126800  0.69860400  1
  O  O48  1  0.58557100  0.59675200  0.49534303  1
  O  O49  1  0.58555000  0.45473200  0.60235200  1
  O  O50  1  0.58555300  0.72327299  0.59158900  1
  O  O51  1  0.58553100  0.58125300  0.69859800  1
